Circuit: * C:\Users\Admin\Documents\winkler.asc

Direct Newton iteration for .op point succeeded.

Date: Sun Jan  7 23:01:28 2024
Total elapsed time: 0.353 seconds.

tnom = 27
temp = 27
method = modified trap
totiter = 2113
traniter = 2090
tranpoints = 1046
accept = 1046
rejected = 0
matrix size = 46
fillins = 72
solver = Normal
Avg thread counts: 2.3/3.6/3.6/2.3
Matrix Compiler1: 6.07 KB object code size  2.0/1.3/[1.0]
Matrix Compiler2: 5.35 KB object code size  0.6/0.8/[0.6]

